data_1000001
_database_code_COD               1000001
_chemical_formula_sum            'C H4 O'
_chemical_name_systematic        'Methanol'
_space_group_IT_number           225
_symmetry_space_group_name_H-M   'F m 3 m'
_cell_length_a                   5.000
_cell_length_b                   5.000  
_cell_length_c                   5.000
_cell_angle_alpha                90
_cell_angle_beta                 90
_cell_angle_gamma                90
loop_
_symmetry_equiv_pos_as_xyz
x,y,z
-x,-y,z
-x,y,-z
x,-y,-z
loop_
_atom_site_label
_atom_site_fract_x
_atom_site_fract_y
_atom_site_fract_z
C1   0.000   0.000   0.000
O1   0.250   0.000   0.000